Version 4
SHEET 1 880 680
WIRE 416 -144 192 -144
WIRE -544 -64 -624 -64
WIRE -176 -64 -352 -64
WIRE -144 -48 -272 -48
WIRE -544 -32 -544 -64
WIRE 192 -16 192 -64
WIRE -624 0 -624 -64
WIRE -352 48 -352 -64
WIRE -304 48 -352 48
WIRE -176 64 -176 -64
WIRE -176 64 -240 64
WIRE -144 64 -144 -48
WIRE -144 64 -176 64
WIRE -16 64 -64 64
WIRE 128 64 -16 64
WIRE -544 80 -544 48
WIRE -400 80 -544 80
WIRE -304 80 -400 80
WIRE -544 112 -544 80
WIRE -272 112 -272 96
WIRE -144 112 -144 64
WIRE -144 112 -272 112
WIRE -272 144 -272 112
WIRE 160 224 160 176
WIRE 160 224 80 224
WIRE 224 224 224 176
WIRE 224 224 160 224
WIRE 80 256 80 224
WIRE 416 256 416 -144
WIRE 416 256 80 256
WIRE 80 288 80 256
FLAG -624 80 0
FLAG -544 192 0
FLAG -400 144 0
FLAG -16 128 0
FLAG 80 288 0
FLAG -272 144 0
SYMBOL res -560 -48 R0
SYMATTR InstName R1
SYMATTR Value 100000
SYMBOL res -560 96 R0
SYMATTR InstName R2
SYMATTR Value 14300
SYMBOL cap -416 80 R0
SYMATTR InstName C1
SYMATTR Value 0.015µ
SYMATTR SpiceLine V=16 Irms=777m Rser=0.326249 Lser=0 mfg="KEMET" pn="C0402C153K4RAC" type="X7R"
SYMBOL res -48 48 R90
WINDOW 0 0 56 VBottom 2
WINDOW 3 32 56 VTop 2
SYMATTR InstName R3
SYMATTR Value 100
SYMBOL cap -32 64 R0
SYMATTR InstName C2
SYMATTR Value 0.015µ
SYMATTR SpiceLine V=16 Irms=955m Rser=0.283316 Lser=0 mfg="KEMET" pn="C0402C153K4PAC" type="X5R"
SYMBOL voltage -624 -16 R0
WINDOW 123 0 0 Left 2
WINDOW 39 0 0 Left 2
SYMATTR InstName V1
SYMATTR Value 24
SYMBOL Comparators\\LTC1440 192 -16 R0
SYMATTR InstName U2
SYMBOL voltage -272 48 R180
WINDOW 0 24 96 Left 2
WINDOW 3 24 16 Left 2
WINDOW 123 0 0 Left 2
WINDOW 39 0 0 Left 2
SYMATTR InstName V2
SYMATTR Value 5
SYMBOL voltage 192 -48 R180
WINDOW 0 24 96 Left 2
WINDOW 3 24 16 Left 2
WINDOW 123 0 0 Left 2
WINDOW 39 0 0 Left 2
SYMATTR InstName V3
SYMATTR Value 3.3
SYMBOL Opamps\\OP07 -272 0 R0
SYMATTR InstName U3
TEXT -658 216 Left 2 !.tran 0 10sec 5sec 0.12sec
